HT	1	0	4.02519	4.28409	0.190532	0.306452	0.190541	1.60832	1.60832
WA	2	0	4.92626	5.43058	1.33702	0.198925	0.093676	2.12354	2.12354
DA	3	0	5.57027	6.88302	2.78946	0.295699	0.1499	1.97264	1.97264
A	4	0	4.56772	5.28643	1.19287	0.370968	0.230018	1.61278	1.61278
DH	5	0	3.0803	3.12002	-0	0.623656	0.510753	1.22105	1.22105
HV	6	0	2.60609	2.46662	-0	0.650538	0.555586	1.1709	1.1709
MW	7	0	3.5816	3.69336	-0	0.38172	0.265719	1.43656	1.43656
HV	8	0	3.78659	4.36477	0.27121	0.693548	0.555586	1.24832	1.24832
VH	9	0	3.81106	4.44285	0.349292	0.715054	0.577	1.23926	1.23926
W	10	0	3.45768	3.6916	-0	0.602151	0.475538	1.26625	1.26625
YA	11	0	2.45557	2.13249	-0	0.177419	0.1191	1.48967	1.48967
AT	12	0	4.33408	4.29858	0.20502	0.123656	0.0526699	2.34775	2.34775
DB	13	0	2.6576	2.54894	-0	0.677419	0.581283	1.16539	1.16539
YA	14	0	2.2292	1.89797	-0	0.172043	0.1191	1.44453	1.44453
AY	15	0	2.31336	1.98022	-0	0.16129	0.108529	1.48615	1.48615
BT	16	0	1.74297	1.44146	-0	0.241935	0.191635	1.26248	1.26248
DG	17	0	3.00697	2.84053	-0	0.311828	0.22043	1.41463	1.41463
GD	18	0	3.17153	3.03036	-0	0.274194	0.184071	1.4896	1.4896
YA	19	0	2.90832	2.64311	-0	0.188172	0.1191	1.57995	1.57995
WR	20	0	3.66637	3.79499	-0	0.354839	0.240022	1.47836	1.47836
DW	21	0	4.92688	6.18874	2.09518	0.483871	0.315929	1.53158	1.53158
WD	22	0	4.3708	5.16396	1.0704	0.505376	0.352287	1.43456	1.43456
AM	23	0	2.20767	1.87444	-0	0.16129	0.110534	1.45919	1.45919
SK	24	0	3.28965	3.24026	-0	0.344086	0.240933	1.42814	1.42814
K	25	0	2.93783	2.90139	-0	0.607527	0.499821	1.21549	1.21549
YB	26	0	3.64095	3.91981	-0	0.526882	0.3963	1.3295	1.3295
BW	27	0	4.52527	5.49132	1.39776	0.526882	0.366958	1.43581	1.43581
WS	28	0	4.86862	5.9565	1.86294	0.430108	0.271369	1.58496	1.58496
BW	29	0	4.06887	4.62734	0.533774	0.510753	0.366958	1.39185	1.39185
WB	30	0	3.86681	4.29076	0.197201	0.521505	0.383634	1.35938	1.35938
TB	31	0	3.14389	3.01272	-0	0.301075	0.207582	1.4504	1.4504
GG	32	0	3.70116	3.55702	-0	0.145161	0.0740842	1.95941	1.95941
GW	33	0	4.11114	4.23399	0.140425	0.204301	0.109987	1.8575	1.8575
HG	34	0	7.10207	10.4416	6.348	0.38172	0.181155	2.10714	2.10714
G	35	0	6.34788	9.14087	5.0473	0.456989	0.254301	1.79704	1.79704
KS	36	0	3.82435	4.10779	0.0142317	0.419355	0.291872	1.43678	1.43678
G	37	0	2.98031	2.82624	-0	0.349462	0.254301	1.37421	1.37421
GW	38	0	2.47066	2.14455	-0	0.166667	0.109987	1.51533	1.51533
RS	39	0	1.70465	1.40922	-0	0.322581	0.267268	1.20696	1.20696
CC	40	0	3.30891	3.06705	-0	0.139785	0.0756333	1.84819	1.84819
S	41	0	3.00253	3.01187	-0	0.634409	0.524462	1.20964	1.20964
VC	42	0	3.02815	2.8553	-0	0.290323	0.201294	1.44228	1.44228
CY	43	0	3.93638	4.07782	-0	0.258065	0.153909	1.67673	1.67673
H	44	0	2.40782	2.30526	-0	0.822581	0.745699	1.1031	1.1031
SM	45	0	1.56363	1.28533	-0	0.333333	0.281757	1.18305	1.18305
DC	46	0	4.58432	5.22954	1.13597	0.327957	0.194824	1.68335	1.68335
C	47	0	4.0869	4.51708	0.42352	0.403226	0.270161	1.49254	1.49254
CD	48	0	4.65572	5.35142	1.25786	0.327957	0.193184	1.69764	1.69764
YH	49	0	4.52742	5.56415	1.47059	0.564516	0.401768	1.40508	1.40508
CV	50	0	5.14541	6.2468	2.15324	0.33871	0.190541	1.77762	1.77762
C	51	0	3.59152	3.71321	-0	0.387097	0.270161	1.43284	1.43284
VG	52	0	3.11366	2.94769	-0	0.263441	0.176417	1.49329	1.49329
GR	53	0	4.95792	5.66582	1.57226	0.252688	0.130308	1.93916	1.93916
GV	54	0	2.89196	2.68046	-0	0.284946	0.200109	1.42395	1.42395
RR	55	0	2.36855	2.07873	-0	0.327957	0.252506	1.29881	1.29881
VR	56	0	2.83819	2.69484	-0	0.467742	0.367414	1.27307	1.27307
GR	57	0	2.77983	2.50056	-0	0.198925	0.130308	1.52657	1.52657
RV	58	0	2.51922	2.29019	-0	0.467742	0.378167	1.23687	1.23687
VS	59	0	3.8938	4.33059	0.237031	0.516129	0.377711	1.36647	1.36647
S	60	0	2.85571	2.79699	-0	0.629032	0.524462	1.19938	1.19938
VV	1	0	-3.96477	4.26024	0.166678	0.424731	0.568708	0.746835	0.746835
RC	2	0	-3.40063	3.95111	-0	0.0430108	0.125661	0.342277	0.342277
BB	3	0	-3.80352	3.95198	-0	0.456989	0.593949	0.769408	0.769408
B	4	0	-4.56772	4.9759	0.882338	0.629032	0.769982	0.816944	0.816944
C	5	0	-2.68332	2.44669	-0	0.182796	0.270161	0.676617	0.676617
SK	6	0	-2.53989	2.2618	-0	0.16129	0.240933	0.66944	0.66944
DS	7	0	-2.71371	2.42481	-0	0.317204	0.415254	0.76388	0.76388
YT	8	0	-3.11446	3.30712	-0	0.0591398	0.137871	0.428949	0.428949
BS	9	0	-3.26429	3.24034	-0	0.284946	0.402315	0.708267	0.708267
S	10	0	-3.45768	3.45292	-0	0.397849	0.524462	0.758585	0.758585
YY	11	0	-2.04784	1.64901	-0	0.215054	0.282668	0.760799	0.760799
YY	12	0	-4.00185	4.78113	0.687569	0.150538	0.282668	0.53256	0.53256
CB	13	0	-2.26776	1.92622	-0	0.123656	0.188719	0.655239	0.655239
RV	14	0	-1.5633	1.17204	-0	0.322581	0.378167	0.853012	0.853012
VR	15	0	-1.57247	1.18021	-0	0.311828	0.367414	0.84871	0.84871
VM	16	0	-1.94716	1.53026	-0	0.322581	0.392291	0.8223	0.8223
RM	17	0	-2.41554	2.09818	-0	0.16129	0.236559	0.681818	0.681818
HV	18	0	-3.29638	3.17893	-0	0.435484	0.555586	0.783828	0.783828
VB	19	0	-2.75065	2.415	-0	0.462366	0.56242	0.8221	0.8221
BM	20	0	-2.93537	2.74581	-0	0.284946	0.389922	0.730778	0.730778
HB	21	0	-3.92121	4.17908	0.0855205	0.430108	0.572353	0.751473	0.751473
SB	22	0	-3.74427	4.08569	-0	0.252688	0.386368	0.654009	0.654009
KA	23	0	-1.67664	1.27113	-0	0.0591398	0.0952251	0.621053	0.621053
RM	24	0	-2.93315	2.84405	-0	0.145161	0.236559	0.613636	0.613636
MR	25	0	-3.98276	4.86026	0.766698	0.112903	0.237106	0.476172	0.476172
VV	26	0	-3.22451	3.06298	-0	0.451613	0.568708	0.794103	0.794103
VS	27	0	-3.66822	3.95636	-0	0.247312	0.377711	0.654765	0.654765
S	28	0	-3.89815	4.19678	0.10322	0.38172	0.524462	0.727832	0.727832
WB	29	0	-4.27572	5.15315	1.05959	0.231183	0.383634	0.602613	0.602613
BR	30	0	-3.73961	4.10769	0.0141291	0.231183	0.36304	0.636797	0.636797
RH	31	0	-3.52116	3.73138	-0	0.22043	0.342993	0.642667	0.642667
VW	32	0	-2.40443	2.0425	-0	0.290323	0.375706	0.772738	0.772738
MG	33	0	-3.39513	4.07911	-0	0.0268817	0.102333	0.262689	0.262689
DH	34	0	-5.57388	7.87137	3.77781	0.306452	0.510753	0.6	0.6
H	35	0	-6.34788	8.7376	4.64404	0.543011	0.745699	0.72819	0.72819
HH	36	0	-3.26636	3.12736	-0	0.446237	0.564972	0.789839	0.789839
HH	37	0	-3.11846	2.9119	-0	0.451613	0.564972	0.799355	0.799355
HH	38	0	-2.08315	1.64538	-0	0.489247	0.564972	0.865968	0.865968
CC	39	0	-1.40535	1.01229	-0	0.0483871	0.0756333	0.639759	0.639759
CR	40	0	-3.07468	3.29859	-0	0.0430108	0.114908	0.374306	0.374306
WB	41	0	-3.22021	3.18414	-0	0.268817	0.383634	0.700713	0.700713
BD	42	0	-3.41824	3.36609	-0	0.430108	0.554675	0.775423	0.775423
DB	43	0	-3.88186	4.09998	0.00642219	0.44086	0.581283	0.758426	0.758426
G	44	0	-2.40782	2.08195	-0	0.177419	0.254301	0.697674	0.697674
GD	45	0	-1.74771	1.34509	-0	0.134409	0.184071	0.730198	0.730198
DD	46	0	-4.3762	5.07919	0.985626	0.376344	0.536359	0.701665	0.701665
DD	47	0	-6.72878	11.0159	6.92237	0.290323	0.536359	0.541284	0.541284
DD	48	0	-5.9936	8.87697	4.78341	0.317204	0.536359	0.591403	0.591403
DD	49	0	-6.14064	9.28332	5.18975	0.311828	0.536359	0.58138	0.58138
DD	50	0	-6.72878	11.0159	6.92237	0.290323	0.536359	0.541284	0.541284
D	51	0	-3.59152	3.46363	-0	0.612903	0.729839	0.839779	0.839779
DH	52	0	-3.0803	2.88922	-0	0.397849	0.510753	0.778947	0.778947
H	53	0	-3.14869	2.82624	-0	0.645161	0.745699	0.865177	0.865177
H	54	0	-2.30679	1.83027	-0	0.672043	0.745699	0.901226	0.901226
RY	55	0	-2.28732	1.93723	-0	0.16129	0.232094	0.694935	0.694935
RY	56	0	-2.28732	1.93723	-0	0.16129	0.232094	0.694935	0.694935
YC	57	0	-2.06955	1.69715	-0	0.0913979	0.144797	0.631215	0.631215
Y	58	0	-2.04184	1.61106	-0	0.44086	0.515681	0.854909	0.854909
VW	59	0	-2.85863	2.64265	-0	0.274194	0.375706	0.729808	0.729808
W	60	0	-2.85571	2.59146	-0	0.370968	0.475538	0.780102	0.780102
